# avogadro generated ORCA input file 
# Basic Mode
# 
!B3LYP DEF2-SVP

%PAL NPROCS 3 END

* xyz 1 1
   H       -0.11260       -4.66370        2.19890
   H       -3.56610       -1.33280        3.64590
   N        4.78200        2.24400        1.88300
   H        5.13920        1.38890        1.48120
   C        0.46400       -0.43400        2.45200
   H        1.13440       -0.14790        3.26240
   C        0.67100       -1.91900        2.07100
   H        1.53450       -2.33530        2.58990
   H        0.80660       -2.02760        0.99490
   C       -1.00700       -0.34500        2.82600
   C       -0.59100       -2.58700        2.51800
   C       -1.56300       -1.68600        2.92000
   C       -0.86700       -3.94500        2.51900
   C       -2.82500       -2.07000        3.33700
   C       -2.13400       -4.38000        2.93900
   C       -3.11600       -3.43900        3.34800
   C        0.81500        0.55100        1.33400
   H       -0.08680        1.10620        1.07580
   H        1.14870       -0.02250        0.46920
   C        1.91800        1.56700        1.69000
   H        1.41700        2.45970        2.06450
   C        2.84400        0.98000        2.76500
   H        3.24880        0.03420        2.40490
   H        2.26610        0.80580        3.67270
   C        4.00200        1.92400        3.08800
   H        3.60140        2.84700        3.50730
   H        4.65590        1.44710        3.81810
   C        3.92500        2.88400        0.87100
   H        4.52310        3.10010       -0.01430
   H        3.52990        3.81450        1.27860
   C        2.75600        1.97900        0.47300
   H        2.11820        2.51450       -0.23020
   H        3.15030        1.08200       -0.00450
   C        5.93400        3.09400        2.23800
   H        5.56700        4.09490        2.46510
   H        6.60620        3.13920        1.38120
   C        6.71300        2.58800        3.43100
   C        7.46800        1.41000        3.33800
   H        7.49120        0.86000        2.40880
   C        8.19000        0.94300        4.43800
   H        8.77040        0.03580        4.35710
   C        8.16200        1.64700        5.64000
   H        8.72000        1.28520        6.49100
   C        7.41400        2.81800        5.74400
   H        7.39360        3.36370        6.67580
   C        6.69100        3.28700        4.64600
   H        6.11110        4.19390        4.73300
   C       -1.93100       -6.58700        2.04900
   H       -2.32890       -7.59080        2.19790
   H       -0.85080       -6.59920        2.19410
   H       -2.15790       -6.25270        1.03670
   C       -4.83200       -3.57100        5.00300
   H       -5.78610       -4.06640        5.18310
   H       -4.97640       -2.49060        5.01060
   H       -4.12520       -3.84860        5.78500
   O       -1.64200        0.67100        3.04900
   O       -2.52500       -5.69800        2.98600
   O       -4.32100       -3.97200        3.73800
*


